#  cvt_run_100.inp
#
#  Modified:
#
#    19 July 2005
#
#  Discussion:
#
#    40 solutions from BURGERS
#
#    Preprocessing:
#    * NONE!
#
#  Our run type is 1. (no steady state file, no preprocessing)
#
1
#
#  The name of the file containing the coordinates of the nodes:
#
NONE
#
#  The name of the file containing the steady state solution:
#
NONE
#
#  The name of the first solution file in the first series.
#
/a/fs.csit.fsu.edu/u8/users/burkardt/public_html/datasets/burgers/burgers_01.txt
#
#  The name of the first solution file in the next series.
#
NONE
#
#  The range of cluster sizes to examine.  Because these values are
#  equal, the program knows we don't want to study a bunch of values,
#  but rather generate the data for one size and write them to a file.
#
4 4
#
#  The number of different random initial configurations to check.
#
15
#
#  The number of energy iterations to take.
#
30
#
#  The name of the element file for mass matrix preconditioning, or NONE.
#
NONE
#
#  0 to use Euclidean distance, 1 to use angular difference in clustering.
#
0
#
#  NO, we don't want comments in the output files.
#
NO
